Circuit: * C:\Users\anike\Desktop\Oculus Tech Event\PS\Final\FE_PS_FINAL\FE final.asc

WARNING: Less than two connections to node NC_01.  This node is used by A:U10:1.
WARNING: Less than two connections to node U2:S.  This node is used by R:U2:S.
WARNING: Less than two connections to node U11:S.  This node is used by R:U11:S.
WARNING: Less than two connections to node U28:S.  This node is used by R:U28:S.
WARNING: Less than two connections to node U33:S.  This node is used by R:U33:S.
Direct Newton iteration for .op point succeeded.
Ignoring empty pin current: Ix(u23:3)
Ignoring empty pin current: Ix(u10:3)
Ignoring empty pin current: Ix(u23:3)
Ignoring empty pin current: Ix(u10:3)

Date: Sun Mar 07 10:36:51 2021
Total elapsed time: 13.084 seconds.

tnom = 27
temp = 27
method = modified trap
totiter = 40975
traniter = 40963
tranpoints = 9849
accept = 7495
rejected = 2354
matrix size = 116
fillins = 0
solver = Normal
Thread vector: 6.2/5.0[3] 3.4/6.5[1] 2.6/23.5[1] 0.8/17.1[1]  2592/500
Matrix Compiler1: 3.43 KB object code size  5.6/2.1/[1.1]
Matrix Compiler2: 6.34 KB object code size  1.7/4.7/[0.9]

