Circuit: * C:\Users\Aditya Kulkarni\Desktop\SPIT_COLLEGE_WORK\oculus\ShortCircuit2021\Aditya_Kulkarni_Short_Circuit_Submission\Oculuc_shortcircuit_powersupply.asc

WARNING: Less than two connections to node CLOCK_OUT_DIV2.  This node is used by A5.
WARNING: Less than two connections to node CLOCK_OUT_DIV4.  This node is used by A1.
WARNING: Less than two connections to node CLOCK_OUT_DIV8.  This node is used by A2.
WARNING: Less than two connections to node CLOCK_OUT_DIV16.  This node is used by A3.
Direct Newton iteration failed to find .op point.  (Use ".option noopiter" to skip.)
Starting Gmin stepping
Gmin = 10
Gmin = 1.07374
Gmin = 0.115292
Gmin = 0.0123794
Gmin = 0.00132923
Gmin = 0.000142725
Gmin = 1.5325e-005
Gmin = 1.6455e-006
Gmin = 1.76685e-007
Gmin = 1.89714e-008
Gmin = 2.03704e-009
Gmin = 2.18725e-010
Gmin = 2.34854e-011
Gmin = 2.52173e-012
Gmin = 2.70769e-013
Gmin = 0
Gmin stepping succeeded in finding the operating point.


Date: Sun Mar 07 10:21:02 2021
Total elapsed time: 0.929 seconds.

tnom = 27
temp = 27
method = modified trap
totiter = 48219
traniter = 47869
tranpoints = 10647
accept = 7396
rejected = 3251
matrix size = 33
fillins = 13
solver = Normal
Matrix Compiler1: 2.61 KB object code size  0.7/0.4/[0.3]
Matrix Compiler2: 2.59 KB object code size  0.4/0.6/[0.4]

